# generated using pymatgen
data_P
_symmetry_space_group_name_H-M   'P 1'
_cell_length_a   13.25119972
_cell_length_b   18.01359940
_cell_length_c   30.00000000
_cell_angle_alpha   90.00000000
_cell_angle_beta   90.00000000
_cell_angle_gamma   90.00000000
_symmetry_Int_Tables_number   1
_chemical_formula_structural   P
_chemical_formula_sum   P128
_cell_volume   7161.05409931
_cell_formula_units_Z   128
loop_
 _symmetry_equiv_pos_site_id
 _symmetry_equiv_pos_as_xyz
  1  'x, y, z'
loop_
 _atom_site_type_symbol
 _atom_site_label
 _atom_site_symmetry_multiplicity
 _atom_site_fract_x
 _atom_site_fract_y
 _atom_site_fract_z
 _atom_site_occupancy
  P  P0  1  0.01268404  0.14811850  0.27071627  1
  P  P1  1  0.98639092  0.40132420  0.27550141  1
  P  P2  1  0.00221865  0.64766162  0.26772583  1
  P  P3  1  0.01067465  0.88645700  0.26502332  1
  P  P4  1  0.24220984  0.13756050  0.27636087  1
  P  P5  1  0.26135874  0.39821976  0.26891595  1
  P  P6  1  0.23548187  0.64108081  0.27155874  1
  P  P7  1  0.25701686  0.88674333  0.27443337  1
  P  P8  1  0.51307393  0.14451430  0.26819751  1
  P  P9  1  0.50474516  0.39728376  0.27342219  1
  P  P10  1  0.49815954  0.64227473  0.26567892  1
  P  P11  1  0.48626180  0.90097233  0.26775725  1
  P  P12  1  0.76268153  0.14926999  0.26580281  1
  P  P13  1  0.74910336  0.39236516  0.27468974  1
  P  P14  1  0.73578232  0.65173706  0.26684199  1
  P  P15  1  0.75572993  0.89937934  0.27343871  1
  P  P16  1  0.99945174  0.10697454  0.20558065  1
  P  P17  1  0.98866051  0.35510889  0.20004030  1
  P  P18  1  0.99137502  0.59307269  0.20020372  1
  P  P19  1  0.98685374  0.85828603  0.19915045  1
  P  P20  1  0.25224262  0.10116995  0.19734854  1
  P  P21  1  0.25368358  0.36375085  0.19934540  1
  P  P22  1  0.25017334  0.61098349  0.20104077  1
  P  P23  1  0.25957203  0.85586980  0.20614989  1
  P  P24  1  0.51089739  0.09841959  0.20550686  1
  P  P25  1  0.50349023  0.34734341  0.20449871  1
  P  P26  1  0.48529209  0.60037818  0.20485841  1
  P  P27  1  0.50589319  0.85340218  0.19924132  1
  P  P28  1  0.74752473  0.09939405  0.20176926  1
  P  P29  1  0.75197891  0.35425402  0.20493756  1
  P  P30  1  0.75450014  0.59649190  0.19824268  1
  P  P31  1  0.74547925  0.86453033  0.20582684  1
  P  P32  1  0.13759051  0.01237129  0.19854715  1
  P  P33  1  0.11395119  0.28066901  0.20101777  1
  P  P34  1  0.13017725  0.53026118  0.20246740  1
  P  P35  1  0.11003863  0.77164064  0.20567790  1
  P  P36  1  0.38781850  0.02607173  0.19626489  1
  P  P37  1  0.36330307  0.26965742  0.20295175  1
  P  P38  1  0.36277120  0.52396498  0.19994754  1
  P  P39  1  0.36995918  0.76753742  0.19658410  1
  P  P40  1  0.62118348  0.01666215  0.20335809  1
  P  P41  1  0.61637588  0.27281463  0.20036630  1
  P  P42  1  0.62756948  0.52103597  0.20181632  1
  P  P43  1  0.62327681  0.77284364  0.19730868  1
  P  P44  1  0.86093865  0.01634020  0.19942032  1
  P  P45  1  0.86955603  0.26812324  0.20123473  1
  P  P46  1  0.88437071  0.51183777  0.19840215  1
  P  P47  1  0.88072632  0.76113560  0.19564830  1
  P  P48  1  0.13178794  0.22344791  0.27669521  1
  P  P49  1  0.13098035  0.46946846  0.27069290  1
  P  P50  1  0.11929404  0.72012414  0.27365894  1
  P  P51  1  0.11291548  0.98587122  0.26935396  1
  P  P52  1  0.36813171  0.21868299  0.26860842  1
  P  P53  1  0.38501525  0.48245190  0.26930219  1
  P  P54  1  0.38950347  0.72387204  0.26932929  1
  P  P55  1  0.37481427  0.98717284  0.27112907  1
  P  P56  1  0.61019984  0.22858925  0.27111960  1
  P  P57  1  0.61413441  0.47460524  0.27050205  1
  P  P58  1  0.61962933  0.72931418  0.26567048  1
  P  P59  1  0.62737217  0.97630133  0.27048767  1
  P  P60  1  0.86217380  0.23035034  0.26612805  1
  P  P61  1  0.88838316  0.47036303  0.26555514  1
  P  P62  1  0.87092742  0.73995840  0.27630861  1
  P  P63  1  0.88745424  0.97726944  0.27193933  1
  P  P64  1  0.03188218  0.20972974  0.45021652  1
  P  P65  1  0.03112498  0.46776765  0.44678057  1
  P  P66  1  0.02663579  0.71007767  0.45354307  1
  P  P67  1  0.02724145  0.97050035  0.44992906  1
  P  P68  1  0.27758012  0.21208440  0.45167892  1
  P  P69  1  0.27729994  0.46797524  0.44633749  1
  P  P70  1  0.27503620  0.70438317  0.45422348  1
  P  P71  1  0.28809723  0.97078557  0.45236280  1
  P  P72  1  0.53042627  0.21833407  0.45280930  1
  P  P73  1  0.53177425  0.45669839  0.44371924  1
  P  P74  1  0.53465751  0.70522326  0.44503616  1
  P  P75  1  0.51483068  0.95902053  0.44523167  1
  P  P76  1  0.76085110  0.22367120  0.44503544  1
  P  P77  1  0.77289802  0.45770018  0.45282876  1
  P  P78  1  0.77383940  0.71212563  0.44184845  1
  P  P79  1  0.78335103  0.95266373  0.44243799  1
  P  P80  1  0.02171742  0.16866274  0.37419552  1
  P  P81  1  0.02555313  0.42252854  0.37320830  1
  P  P82  1  0.02423153  0.68100668  0.37363479  1
  P  P83  1  0.00947458  0.92131648  0.38118257  1
  P  P84  1  0.27689223  0.17803077  0.37805168  1
  P  P85  1  0.28331666  0.42199134  0.37062027  1
  P  P86  1  0.26307569  0.66074777  0.37626763  1
  P  P87  1  0.27626186  0.91683702  0.37598179  1
  P  P88  1  0.52624009  0.17262246  0.37206259  1
  P  P89  1  0.51327747  0.43095049  0.37955855  1
  P  P90  1  0.51204825  0.67891950  0.37990462  1
  P  P91  1  0.53790519  0.91491286  0.38015523  1
  P  P92  1  0.77020618  0.16472976  0.38025627  1
  P  P93  1  0.76518633  0.41430926  0.37054403  1
  P  P94  1  0.76349298  0.68032662  0.38326227  1
  P  P95  1  0.77847358  0.92877595  0.38139944  1
  P  P96  1  0.15171807  0.09420375  0.38259641  1
  P  P97  1  0.15274762  0.33571798  0.37075190  1
  P  P98  1  0.13597794  0.58819712  0.38299477  1
  P  P99  1  0.16029358  0.83730782  0.38134050  1
  P  P100  1  0.39507176  0.08262394  0.38170625  1
  P  P101  1  0.39278074  0.33821150  0.37178716  1
  P  P102  1  0.39727821  0.57767431  0.38039370  1
  P  P103  1  0.39509590  0.82992403  0.38334221  1
  P  P104  1  0.65938928  0.09668424  0.37959062  1
  P  P105  1  0.66137201  0.34368851  0.37815081  1
  P  P106  1  0.64248141  0.58638710  0.38315172  1
  P  P107  1  0.65940011  0.83848068  0.37644915  1
  P  P108  1  0.90691241  0.08521311  0.37853391  1
  P  P109  1  0.91141870  0.34344647  0.37689450  1
  P  P110  1  0.89073960  0.59441035  0.38298127  1
  P  P111  1  0.90073745  0.84394621  0.37155779  1
  P  P112  1  0.14160878  0.05088804  0.44810492  1
  P  P113  1  0.15819746  0.28938323  0.45058269  1
  P  P114  1  0.13348211  0.54234690  0.45198207  1
  P  P115  1  0.15037099  0.79527525  0.44919690  1
  P  P116  1  0.39356057  0.04218753  0.45354222  1
  P  P117  1  0.39306190  0.30160591  0.45398321  1
  P  P118  1  0.40278850  0.54215556  0.44228091  1
  P  P119  1  0.40902425  0.78791163  0.44678826  1
  P  P120  1  0.65171053  0.04370299  0.44173611  1
  P  P121  1  0.65907522  0.30660156  0.44581554  1
  P  P122  1  0.64130850  0.53985792  0.44858156  1
  P  P123  1  0.64900305  0.79843538  0.45356725  1
  P  P124  1  0.89692126  0.04445648  0.45271071  1
  P  P125  1  0.88367290  0.28641926  0.44312332  1
  P  P126  1  0.90012929  0.54567564  0.44266373  1
  P  P127  1  0.90329013  0.80043399  0.44928022  1
