# generated using pymatgen
data_P
_symmetry_space_group_name_H-M   'P 1'
_cell_length_a   13.25119972
_cell_length_b   18.01359940
_cell_length_c   30.00000000
_cell_angle_alpha   90.00000000
_cell_angle_beta   90.00000000
_cell_angle_gamma   90.00000000
_symmetry_Int_Tables_number   1
_chemical_formula_structural   P
_chemical_formula_sum   P128
_cell_volume   7161.05409931
_cell_formula_units_Z   128
loop_
 _symmetry_equiv_pos_site_id
 _symmetry_equiv_pos_as_xyz
  1  'x, y, z'
loop_
 _atom_site_type_symbol
 _atom_site_label
 _atom_site_symmetry_multiplicity
 _atom_site_fract_x
 _atom_site_fract_y
 _atom_site_fract_z
 _atom_site_occupancy
  P  P0  1  0.98824655  0.13526349  0.27536723  1
  P  P1  1  0.01045799  0.38687353  0.27513399  1
  P  P2  1  0.98875539  0.63959098  0.26812801  1
  P  P3  1  0.99689952  0.88556394  0.27492554  1
  P  P4  1  0.25897414  0.13900363  0.26436677  1
  P  P5  1  0.23943243  0.39792147  0.27182360  1
  P  P6  1  0.24182720  0.64433270  0.26694012  1
  P  P7  1  0.25670890  0.90479695  0.26548089  1
  P  P8  1  0.50664201  0.15312647  0.26489938  1
  P  P9  1  0.50426067  0.39256498  0.27315718  1
  P  P10  1  0.50585452  0.64073539  0.26840500  1
  P  P11  1  0.50128968  0.89340602  0.27353689  1
  P  P12  1  0.74250782  0.14808254  0.26474475  1
  P  P13  1  0.74534219  0.39092725  0.26807720  1
  P  P14  1  0.74038873  0.64883428  0.27106655  1
  P  P15  1  0.76232947  0.89406594  0.27441631  1
  P  P16  1  0.00251726  0.10507823  0.19725337  1
  P  P17  1  0.99700711  0.35250416  0.20134855  1
  P  P18  1  0.99885311  0.59935852  0.20481637  1
  P  P19  1  0.01350167  0.86388061  0.20121484  1
  P  P20  1  0.23953608  0.10977599  0.19610946  1
  P  P21  1  0.25260293  0.34593105  0.19332868  1
  P  P22  1  0.25017776  0.61210450  0.20460465  1
  P  P23  1  0.25336435  0.85364341  0.19328693  1
  P  P24  1  0.48545370  0.11268371  0.20466602  1
  P  P25  1  0.51123291  0.36058092  0.20005583  1
  P  P26  1  0.51304390  0.60226183  0.20552424  1
  P  P27  1  0.50196611  0.84331872  0.20365378  1
  P  P28  1  0.75593609  0.09878588  0.20630912  1
  P  P29  1  0.76275354  0.35484701  0.19767949  1
  P  P30  1  0.75625569  0.60688644  0.20323251  1
  P  P31  1  0.73951156  0.84854629  0.19836241  1
  P  P32  1  0.12730284  0.01306924  0.19940168  1
  P  P33  1  0.12822129  0.27851478  0.20137007  1
  P  P34  1  0.12270981  0.53183387  0.20465236  1
  P  P35  1  0.13213729  0.77164796  0.20612445  1
  P  P36  1  0.38811178  0.01378699  0.20324698  1
  P  P37  1  0.38784619  0.26602148  0.19857356  1
  P  P38  1  0.37351604  0.51038315  0.19862143  1
  P  P39  1  0.36332522  0.78027719  0.20283777  1
  P  P40  1  0.63963539  0.01258949  0.19618703  1
  P  P41  1  0.63522996  0.27277658  0.19447632  1
  P  P42  1  0.61367009  0.51606030  0.19773163  1
  P  P43  1  0.63770351  0.77228055  0.19683319  1
  P  P44  1  0.88616567  0.02443986  0.19695411  1
  P  P45  1  0.87556864  0.27839956  0.19611811  1
  P  P46  1  0.87775524  0.51455845  0.19356458  1
  P  P47  1  0.87195130  0.76021895  0.19324165  1
  P  P48  1  0.11156006  0.22085938  0.27704296  1
  P  P49  1  0.12002527  0.48780509  0.26957697  1
  P  P50  1  0.13414192  0.73722490  0.26899769  1
  P  P51  1  0.11004685  0.98108560  0.27293530  1
  P  P52  1  0.36997401  0.23115452  0.26678338  1
  P  P53  1  0.37192613  0.48258721  0.27653948  1
  P  P54  1  0.37612882  0.72171398  0.27435793  1
  P  P55  1  0.38767374  0.98812470  0.26506548  1
  P  P56  1  0.62036181  0.22711876  0.26944108  1
  P  P57  1  0.62038014  0.47632754  0.27559491  1
  P  P58  1  0.63216920  0.72934258  0.27646976  1
  P  P59  1  0.62355765  0.96886268  0.27010535  1
  P  P60  1  0.86668694  0.22151217  0.27205215  1
  P  P61  1  0.87356434  0.48420814  0.26610045  1
  P  P62  1  0.86415893  0.71965836  0.27708891  1
  P  P63  1  0.86523144  0.98121304  0.26696229  1
  P  P64  1  0.09358576  0.00310144  0.45399308  1
  P  P65  1  0.09118772  0.25629784  0.45008528  1
  P  P66  1  0.10615755  0.50406393  0.44952648  1
  P  P67  1  0.08948126  0.75555122  0.44825917  1
  P  P68  1  0.34606767  0.01362009  0.44449892  1
  P  P69  1  0.34762755  0.25425107  0.44377703  1
  P  P70  1  0.32893733  0.51023062  0.44436314  1
  P  P71  1  0.34857156  0.75822426  0.44390916  1
  P  P72  1  0.58391624  0.01239047  0.45181778  1
  P  P73  1  0.60755287  0.26845607  0.44609166  1
  P  P74  1  0.58302958  0.51392044  0.44219456  1
  P  P75  1  0.59105788  0.75242620  0.45434469  1
  P  P76  1  0.83111842  0.99834579  0.45320713  1
  P  P77  1  0.85863365  0.25347704  0.45379335  1
  P  P78  1  0.84370129  0.51086732  0.45468876  1
  P  P79  1  0.84651432  0.74879529  0.44374192  1
  P  P80  1  0.08056682  0.21652039  0.37582655  1
  P  P81  1  0.10118032  0.46875152  0.38065317  1
  P  P82  1  0.08487826  0.71292039  0.37982360  1
  P  P83  1  0.10565068  0.97261680  0.37259527  1
  P  P84  1  0.33473439  0.20786542  0.38142110  1
  P  P85  1  0.33429815  0.45716682  0.37353587  1
  P  P86  1  0.32964534  0.72166811  0.37352756  1
  P  P87  1  0.34279184  0.96650096  0.37770298  1
  P  P88  1  0.59559232  0.22078464  0.37844919  1
  P  P89  1  0.58052553  0.46515389  0.37827781  1
  P  P90  1  0.60195209  0.71096982  0.37176315  1
  P  P91  1  0.59222501  0.97368689  0.38224280  1
  P  P92  1  0.84437127  0.22324974  0.37408466  1
  P  P93  1  0.84184690  0.47092440  0.37227019  1
  P  P94  1  0.84063947  0.71154146  0.38239330  1
  P  P95  1  0.84543533  0.96860469  0.38328534  1
  P  P96  1  0.20822813  0.13066894  0.38203836  1
  P  P97  1  0.20903373  0.37468698  0.38133687  1
  P  P98  1  0.22955587  0.64302271  0.37927988  1
  P  P99  1  0.23210145  0.87569147  0.37788809  1
  P  P100  1  0.46481075  0.14375380  0.37170315  1
  P  P101  1  0.46171474  0.38255711  0.37598937  1
  P  P102  1  0.47298179  0.62676431  0.37551250  1
  P  P103  1  0.46588008  0.88468651  0.37400671  1
  P  P104  1  0.70430837  0.14203751  0.38018893  1
  P  P105  1  0.70825567  0.38891273  0.37715500  1
  P  P106  1  0.72515436  0.64056340  0.37162394  1
  P  P107  1  0.72343230  0.88728193  0.37347910  1
  P  P108  1  0.95435997  0.13802566  0.37965344  1
  P  P109  1  0.96024250  0.39151012  0.37155840  1
  P  P110  1  0.96051727  0.62819734  0.38189275  1
  P  P111  1  0.97382377  0.88352125  0.37714528  1
  P  P112  1  0.20413704  0.08541041  0.44783114  1
  P  P113  1  0.20668467  0.35242996  0.44932209  1
  P  P114  1  0.22768828  0.60146161  0.45241907  1
  P  P115  1  0.20893160  0.83137385  0.44606078  1
  P  P116  1  0.47324582  0.09616597  0.45046354  1
  P  P117  1  0.46073183  0.35104391  0.44896641  1
  P  P118  1  0.45654379  0.58450811  0.44498370  1
  P  P119  1  0.46088244  0.84310983  0.45313839  1
  P  P120  1  0.72534437  0.10082718  0.45205567  1
  P  P121  1  0.72937206  0.33125214  0.45020268  1
  P  P122  1  0.72860303  0.59598488  0.45276441  1
  P  P123  1  0.71553142  0.83710112  0.45298724  1
  P  P124  1  0.97370884  0.10102498  0.45086816  1
  P  P125  1  0.95972970  0.35206114  0.45258350  1
  P  P126  1  0.96239100  0.60146621  0.45072294  1
  P  P127  1  0.98059880  0.84102849  0.45049186  1
