# generated using pymatgen
data_P
_symmetry_space_group_name_H-M   'P 1'
_cell_length_a   13.25119972
_cell_length_b   18.01359940
_cell_length_c   30.00000000
_cell_angle_alpha   90.00000000
_cell_angle_beta   90.00000000
_cell_angle_gamma   90.00000000
_symmetry_Int_Tables_number   1
_chemical_formula_structural   P
_chemical_formula_sum   P128
_cell_volume   7161.05409931
_cell_formula_units_Z   128
loop_
 _symmetry_equiv_pos_site_id
 _symmetry_equiv_pos_as_xyz
  1  'x, y, z'
loop_
 _atom_site_type_symbol
 _atom_site_label
 _atom_site_symmetry_multiplicity
 _atom_site_fract_x
 _atom_site_fract_y
 _atom_site_fract_z
 _atom_site_occupancy
  P  P0  1  0.99342051  0.13597888  0.26669264  1
  P  P1  1  0.99026321  0.38556027  0.26823996  1
  P  P2  1  0.00756504  0.64333431  0.26547016  1
  P  P3  1  0.00926210  0.90297347  0.27574703  1
  P  P4  1  0.26480636  0.15689768  0.27178790  1
  P  P5  1  0.24736228  0.38831485  0.27292803  1
  P  P6  1  0.24613674  0.64816771  0.27439562  1
  P  P7  1  0.25834379  0.89343263  0.27051923  1
  P  P8  1  0.49519450  0.15651216  0.26503227  1
  P  P9  1  0.51300282  0.40367440  0.27103475  1
  P  P10  1  0.51081903  0.65359024  0.27169788  1
  P  P11  1  0.49785662  0.89538232  0.27381253  1
  P  P12  1  0.75757278  0.14418603  0.26962879  1
  P  P13  1  0.75768362  0.39104590  0.26557440  1
  P  P14  1  0.73801992  0.63622662  0.26765701  1
  P  P15  1  0.76215144  0.90417632  0.26871443  1
  P  P16  1  0.00015855  0.11087061  0.20161557  1
  P  P17  1  0.00985443  0.36501895  0.20061371  1
  P  P18  1  0.99456803  0.61495054  0.19775129  1
  P  P19  1  0.01193924  0.85515339  0.20615687  1
  P  P20  1  0.24665545  0.10989549  0.20108033  1
  P  P21  1  0.23523417  0.36379872  0.19616636  1
  P  P22  1  0.26223684  0.61168658  0.19436043  1
  P  P23  1  0.23766260  0.84831225  0.19504146  1
  P  P24  1  0.49454581  0.10282431  0.19628277  1
  P  P25  1  0.51358555  0.34568782  0.19514575  1
  P  P26  1  0.51360200  0.61400491  0.19549090  1
  P  P27  1  0.50221679  0.85628016  0.19680460  1
  P  P28  1  0.75397963  0.09789689  0.19531498  1
  P  P29  1  0.74844378  0.35773519  0.20496021  1
  P  P30  1  0.74375787  0.60654559  0.19407312  1
  P  P31  1  0.74482808  0.85077294  0.19999682  1
  P  P32  1  0.13020763  0.01249637  0.19847529  1
  P  P33  1  0.13261816  0.27488736  0.20610172  1
  P  P34  1  0.13380159  0.52152844  0.19449719  1
  P  P35  1  0.13374240  0.77712445  0.19830808  1
  P  P36  1  0.36266017  0.02152524  0.20592961  1
  P  P37  1  0.37483157  0.27889785  0.20454343  1
  P  P38  1  0.36164449  0.52223012  0.20389763  1
  P  P39  1  0.37649508  0.77243066  0.19644204  1
  P  P40  1  0.62323504  0.02944126  0.19528184  1
  P  P41  1  0.63670322  0.26893429  0.20191858  1
  P  P42  1  0.62049973  0.51295065  0.20539502  1
  P  P43  1  0.61344081  0.76061391  0.20042684  1
  P  P44  1  0.86422337  0.02674294  0.20062484  1
  P  P45  1  0.88289395  0.27374903  0.19673639  1
  P  P46  1  0.87856852  0.52560918  0.20326324  1
  P  P47  1  0.86295951  0.76470374  0.19549725  1
  P  P48  1  0.11244587  0.22084797  0.26818906  1
  P  P49  1  0.13106644  0.46814275  0.26954582  1
  P  P50  1  0.11210345  0.72560473  0.27064147  1
  P  P51  1  0.13471565  0.98091916  0.26710546  1
  P  P52  1  0.38122562  0.22652973  0.26540449  1
  P  P53  1  0.36236262  0.47753410  0.27201493  1
  P  P54  1  0.36246793  0.73789703  0.26772174  1
  P  P55  1  0.38968968  0.97555295  0.27162318  1
  P  P56  1  0.62120475  0.22923314  0.26593150  1
  P  P57  1  0.62109521  0.48522114  0.27028853  1
  P  P58  1  0.63444215  0.72662519  0.27097452  1
  P  P59  1  0.63850062  0.98163349  0.26456431  1
  P  P60  1  0.88967040  0.23696895  0.26836139  1
  P  P61  1  0.88264846  0.48890431  0.26566553  1
  P  P62  1  0.87126478  0.72108561  0.26471833  1
  P  P63  1  0.86242758  0.98839507  0.27707280  1
  P  P64  1  0.10200097  0.00858101  0.44572137  1
  P  P65  1  0.09539802  0.25338778  0.45222165  1
  P  P66  1  0.09134760  0.50784867  0.44481853  1
  P  P67  1  0.10590122  0.76941541  0.45051002  1
  P  P68  1  0.33189866  0.00859216  0.45155969  1
  P  P69  1  0.34341241  0.25495343  0.44936517  1
  P  P70  1  0.32888478  0.51171830  0.44771100  1
  P  P71  1  0.34268902  0.75298589  0.44691453  1
  P  P72  1  0.58024162  0.99933793  0.44607490  1
  P  P73  1  0.58212869  0.25051518  0.45381704  1
  P  P74  1  0.58208970  0.50049667  0.45249825  1
  P  P75  1  0.59813908  0.75102642  0.45429035  1
  P  P76  1  0.85106213  0.00073607  0.44308062  1
  P  P77  1  0.84615159  0.26188426  0.45116822  1
  P  P78  1  0.85758615  0.50169208  0.45393453  1
  P  P79  1  0.83985788  0.75532905  0.44383976  1
  P  P80  1  0.08716655  0.22541194  0.37142994  1
  P  P81  1  0.10476154  0.46602288  0.38042493  1
  P  P82  1  0.08529151  0.72032177  0.37820297  1
  P  P83  1  0.10761784  0.95932479  0.38176771  1
  P  P84  1  0.32890895  0.20976822  0.37240696  1
  P  P85  1  0.35781877  0.45640586  0.38114689  1
  P  P86  1  0.32984488  0.70924963  0.37323169  1
  P  P87  1  0.35544205  0.96168458  0.37272540  1
  P  P88  1  0.59447121  0.20942895  0.37273353  1
  P  P89  1  0.60851564  0.45746803  0.38140432  1
  P  P90  1  0.58076968  0.70817713  0.37941262  1
  P  P91  1  0.59526067  0.96573015  0.37751753  1
  P  P92  1  0.85780137  0.21008009  0.37532773  1
  P  P93  1  0.84433226  0.46358713  0.38223933  1
  P  P94  1  0.84754105  0.71667696  0.37577593  1
  P  P95  1  0.84954389  0.97082888  0.38143132  1
  P  P96  1  0.21726281  0.12352630  0.37639846  1
  P  P97  1  0.22248549  0.39040462  0.37556925  1
  P  P98  1  0.22118014  0.63659616  0.37671239  1
  P  P99  1  0.23074436  0.87446885  0.37456170  1
  P  P100  1  0.45491390  0.14205156  0.38051145  1
  P  P101  1  0.46202320  0.39310174  0.37724626  1
  P  P102  1  0.48223113  0.62400962  0.37363949  1
  P  P103  1  0.48041551  0.87880155  0.38253765  1
  P  P104  1  0.71729649  0.14055541  0.37566187  1
  P  P105  1  0.72226135  0.38926879  0.37779070  1
  P  P106  1  0.71191507  0.62675073  0.38262962  1
  P  P107  1  0.70922067  0.87730205  0.37886650  1
  P  P108  1  0.96753923  0.13087985  0.37210196  1
  P  P109  1  0.96420833  0.38341240  0.38307442  1
  P  P110  1  0.97116027  0.63638198  0.37891277  1
  P  P111  1  0.95588855  0.88084525  0.37500873  1
  P  P112  1  0.23295509  0.09076914  0.44328028  1
  P  P113  1  0.23331176  0.34709628  0.45201032  1
  P  P114  1  0.22461673  0.58131292  0.44969096  1
  P  P115  1  0.21972463  0.83610383  0.44853613  1
  P  P116  1  0.46288544  0.09633860  0.45334189  1
  P  P117  1  0.47810723  0.35037682  0.45193795  1
  P  P118  1  0.47421131  0.59186038  0.44344565  1
  P  P119  1  0.45845080  0.84231417  0.44557961  1
  P  P120  1  0.73103926  0.08287816  0.44473651  1
  P  P121  1  0.72837112  0.34043335  0.45134260  1
  P  P122  1  0.73221267  0.59232536  0.44187042  1
  P  P123  1  0.72544859  0.83588252  0.44902185  1
  P  P124  1  0.97205857  0.08647702  0.45158944  1
  P  P125  1  0.96616712  0.33887612  0.45311353  1
  P  P126  1  0.98169735  0.58094404  0.44598441  1
  P  P127  1  0.97968501  0.83765027  0.45237342  1
