# generated using pymatgen
data_P
_symmetry_space_group_name_H-M   'P 1'
_cell_length_a   13.25119972
_cell_length_b   18.01359940
_cell_length_c   30.00000000
_cell_angle_alpha   90.00000000
_cell_angle_beta   90.00000000
_cell_angle_gamma   90.00000000
_symmetry_Int_Tables_number   1
_chemical_formula_structural   P
_chemical_formula_sum   P128
_cell_volume   7161.05409931
_cell_formula_units_Z   128
loop_
 _symmetry_equiv_pos_site_id
 _symmetry_equiv_pos_as_xyz
  1  'x, y, z'
loop_
 _atom_site_type_symbol
 _atom_site_label
 _atom_site_symmetry_multiplicity
 _atom_site_fract_x
 _atom_site_fract_y
 _atom_site_fract_z
 _atom_site_occupancy
  P  P0  1  0.00700296  0.14424357  0.27147415  1
  P  P1  1  0.00297810  0.38990678  0.26516902  1
  P  P2  1  0.98961660  0.63763644  0.27207343  1
  P  P3  1  0.98961587  0.89247167  0.27707405  1
  P  P4  1  0.23666034  0.15591251  0.26574112  1
  P  P5  1  0.26105337  0.39215164  0.27078439  1
  P  P6  1  0.25305225  0.64649475  0.27557164  1
  P  P7  1  0.25628087  0.90058563  0.27375025  1
  P  P8  1  0.48552839  0.14304933  0.27316688  1
  P  P9  1  0.51418467  0.40655363  0.27323979  1
  P  P10  1  0.51003510  0.65634635  0.26866655  1
  P  P11  1  0.49131668  0.89056571  0.26778789  1
  P  P12  1  0.74039559  0.14601640  0.27466481  1
  P  P13  1  0.74044327  0.39165591  0.27467484  1
  P  P14  1  0.74409087  0.64129979  0.27543430  1
  P  P15  1  0.75074730  0.88579387  0.27604987  1
  P  P16  1  0.99794570  0.10635543  0.19982123  1
  P  P17  1  0.99369805  0.35398199  0.19969022  1
  P  P18  1  0.00337639  0.59396289  0.20364727  1
  P  P19  1  0.98911778  0.84900725  0.20166952  1
  P  P20  1  0.24372569  0.11298823  0.20236289  1
  P  P21  1  0.24596601  0.34813936  0.20361390  1
  P  P22  1  0.24867393  0.59603723  0.20487007  1
  P  P23  1  0.25860831  0.85368830  0.19750994  1
  P  P24  1  0.49093437  0.11470659  0.19801111  1
  P  P25  1  0.50042968  0.34819472  0.19425643  1
  P  P26  1  0.50278962  0.60774485  0.20071374  1
  P  P27  1  0.48630918  0.85973188  0.19348257  1
  P  P28  1  0.75324634  0.09809663  0.19921131  1
  P  P29  1  0.74005446  0.35899015  0.20023860  1
  P  P30  1  0.73687067  0.60098657  0.19682389  1
  P  P31  1  0.76355003  0.85686041  0.20088111  1
  P  P32  1  0.13905554  0.02404259  0.19341001  1
  P  P33  1  0.13430927  0.27187189  0.19350131  1
  P  P34  1  0.11910208  0.51197970  0.20397134  1
  P  P35  1  0.11285535  0.77852304  0.19780588  1
  P  P36  1  0.38056125  0.01709784  0.19469748  1
  P  P37  1  0.37319345  0.26411650  0.19996658  1
  P  P38  1  0.36359087  0.51088021  0.20326992  1
  P  P39  1  0.37485441  0.77309582  0.19588095  1
  P  P40  1  0.61094508  0.02502040  0.20130854  1
  P  P41  1  0.63735572  0.26034312  0.19414130  1
  P  P42  1  0.61771855  0.52134603  0.19369242  1
  P  P43  1  0.62990589  0.76500422  0.20008806  1
  P  P44  1  0.86931632  0.02430113  0.20021180  1
  P  P45  1  0.87560577  0.26384666  0.20150240  1
  P  P46  1  0.87640999  0.52531736  0.20268455  1
  P  P47  1  0.86548703  0.76856241  0.20601470  1
  P  P48  1  0.13917486  0.23862029  0.27075734  1
  P  P49  1  0.13330514  0.47087349  0.26817942  1
  P  P50  1  0.13826669  0.72539331  0.27447581  1
  P  P51  1  0.13691824  0.97033951  0.26748443  1
  P  P52  1  0.37795520  0.23835301  0.26972628  1
  P  P53  1  0.38773467  0.48730149  0.26491942  1
  P  P54  1  0.36257826  0.72354749  0.26421134  1
  P  P55  1  0.36582296  0.98247502  0.27670864  1
  P  P56  1  0.61127226  0.23596656  0.27501973  1
  P  P57  1  0.61972743  0.48014826  0.27315299  1
  P  P58  1  0.62163962  0.72958091  0.26932604  1
  P  P59  1  0.61809795  0.97319022  0.26618392  1
  P  P60  1  0.88492325  0.21988717  0.26595916  1
  P  P61  1  0.87067596  0.48774285  0.26720990  1
  P  P62  1  0.86838730  0.73781396  0.27119635  1
  P  P63  1  0.87628882  0.98187808  0.27340128  1
  P  P64  1  0.08279599  0.00518166  0.45022595  1
  P  P65  1  0.10275713  0.25540771  0.44515577  1
  P  P66  1  0.08079244  0.51377352  0.45415486  1
  P  P67  1  0.10833217  0.76757409  0.45126195  1
  P  P68  1  0.35185300  0.01735150  0.44881471  1
  P  P69  1  0.33454048  0.26497084  0.44957960  1
  P  P70  1  0.32870875  0.51190995  0.44701799  1
  P  P71  1  0.35315753  0.74952172  0.44472640  1
  P  P72  1  0.59987921  0.00124239  0.44616962  1
  P  P73  1  0.60054783  0.26760615  0.45152794  1
  P  P74  1  0.60182358  0.51111938  0.44161523  1
  P  P75  1  0.58077716  0.74785758  0.44297096  1
  P  P76  1  0.83936268  0.99990657  0.44203669  1
  P  P77  1  0.83203967  0.26238670  0.44196637  1
  P  P78  1  0.85459565  0.49776575  0.45282946  1
  P  P79  1  0.84735690  0.75122417  0.45080543  1
  P  P80  1  0.08853053  0.21768323  0.37686564  1
  P  P81  1  0.08046063  0.47086220  0.37184778  1
  P  P82  1  0.08792935  0.71997545  0.37709820  1
  P  P83  1  0.08835802  0.96047836  0.37685628  1
  P  P84  1  0.35056591  0.22131261  0.37285268  1
  P  P85  1  0.34778733  0.46076658  0.37632801  1
  P  P86  1  0.35532341  0.71272400  0.37585672  1
  P  P87  1  0.34279631  0.97207453  0.37875466  1
  P  P88  1  0.58215212  0.21992374  0.37901124  1
  P  P89  1  0.60007203  0.47435574  0.37114738  1
  P  P90  1  0.60150707  0.72010094  0.37553816  1
  P  P91  1  0.59548474  0.96811790  0.37888812  1
  P  P92  1  0.85181443  0.20757845  0.37725181  1
  P  P93  1  0.84344774  0.46366365  0.38196319  1
  P  P94  1  0.84432124  0.71138729  0.37932591  1
  P  P95  1  0.84144779  0.96091625  0.37271578  1
  P  P96  1  0.20430936  0.14425949  0.37148424  1
  P  P97  1  0.20679886  0.38138226  0.37910891  1
  P  P98  1  0.20449078  0.64246165  0.37089681  1
  P  P99  1  0.22275271  0.88666807  0.37835367  1
  P  P100  1  0.46303119  0.14030249  0.38307973  1
  P  P101  1  0.46889374  0.38381464  0.37821631  1
  P  P102  1  0.48093781  0.63546376  0.37571892  1
  P  P103  1  0.46106718  0.88358993  0.37912050  1
  P  P104  1  0.71592985  0.12698881  0.37665336  1
  P  P105  1  0.72634908  0.38869573  0.37781821  1
  P  P106  1  0.71044855  0.62888803  0.38309619  1
  P  P107  1  0.70586577  0.87319330  0.37569136  1
  P  P108  1  0.96228848  0.13698635  0.38335920  1
  P  P109  1  0.95840867  0.37658618  0.38261467  1
  P  P110  1  0.98160586  0.64353666  0.37315387  1
  P  P111  1  0.97793593  0.89383576  0.37146814  1
  P  P112  1  0.22266195  0.10081333  0.44276703  1
  P  P113  1  0.22984792  0.33871789  0.44166628  1
  P  P114  1  0.22780166  0.58084158  0.44268256  1
  P  P115  1  0.20917385  0.85111208  0.45053008  1
  P  P116  1  0.48048479  0.09000637  0.44237250  1
  P  P117  1  0.46982261  0.35196336  0.44567633  1
  P  P118  1  0.47791540  0.60189597  0.45268832  1
  P  P119  1  0.48059142  0.84943981  0.44173361  1
  P  P120  1  0.71314129  0.08703672  0.45228290  1
  P  P121  1  0.70686408  0.33904962  0.44518138  1
  P  P122  1  0.71042250  0.59939822  0.44299885  1
  P  P123  1  0.71643471  0.83753575  0.45071315  1
  P  P124  1  0.97823461  0.08426202  0.44980922  1
  P  P125  1  0.97952402  0.34286238  0.45312295  1
  P  P126  1  0.95375191  0.60128609  0.45122427  1
  P  P127  1  0.96895945  0.84595401  0.45213640  1
